[Format]      =  4.0
[Frequency]   =  0
[Precision]   =  1e-008
[MinAngle]    =  30
[DoSmartMesh] =  1
[Depth]       =  1
[LengthUnits] =  inches
[ProblemType] =  planar
[Coordinates] =  cartesian
[ACSolver]    =  0
[PrevType]    =  0
[PrevSoln]    =  ""
[Comment]     =  "Add comments here."
[PointProps]   = 0
[BdryProps]   = 0
[BlockProps]  = 3
  <BeginBlock>
    <BlockName> = "Air"
    <Mu_x> = 1
    <Mu_y> = 1
    <H_c> = 0
    <H_cAngle> = 0
    <J_re> = 0
    <J_im> = 0
    <Sigma> = 0
    <d_lam> = 0
    <Phi_h> = 0
    <Phi_hx> = 0
    <Phi_hy> = 0
    <LamType> = 0
    <LamFill> = 1
    <NStrands> = 0
    <WireD> = 0
    <BHPoints> = 0
  <EndBlock>
  <BeginBlock>
    <BlockName> = "N42"
    <Mu_x> = 1.05
    <Mu_y> = 1.05
    <H_c> = 994529
    <H_cAngle> = 0
    <J_re> = 0
    <J_im> = 0
    <Sigma> = 0.66700000000000004
    <d_lam> = 0
    <Phi_h> = 0
    <Phi_hx> = 0
    <Phi_hy> = 0
    <LamType> = 0
    <LamFill> = 1
    <NStrands> = 0
    <WireD> = 0
    <BHPoints> = 0
  <EndBlock>
  <BeginBlock>
    <BlockName> = "1018 Steel"
    <Mu_x> = 529
    <Mu_y> = 529
    <H_c> = 0
    <H_cAngle> = 0
    <J_re> = 0
    <J_im> = 0
    <Sigma> = 5.7999999999999998
    <d_lam> = 0
    <Phi_h> = 20
    <Phi_hx> = 0
    <Phi_hy> = 0
    <LamType> = 0
    <LamFill> = 1
    <NStrands> = 0
    <WireD> = 0
    <BHPoints> = 13
      0	0
      0.25030000000000002	238.73249999999999
      0.92500000000000004	795.77499999999998
      1.25	1591.55
      1.3899999999999999	2387.3249999999998
      1.5249999999999999	3978.875
      1.71	7957.75
      1.8700000000000001	15915.5
      1.9550000000000001	23873.25
      2.02	39788.75
      2.1099999999999999	79577.5
      2.2250000000000001	159155
      2.4300000000000002	318310
  <EndBlock>
[CircuitProps]  = 0
[NumPoints] = 36
0	0	0	0
3.5	0	0	0
0	3.0625	0	0
3.5	3.0625	0	0
0.5	0	0	0
0.5	3.0625	0	0
3	0	0	0
3	3.0625	0	0
0.5	0.5	0	0
3	0.5	0	0
0.5	2.5625	0	0
3	2.5625	0	0
0.5	1.28125	0	0
3	1.28125	0	0
0.5	1.78125	0	0
3	1.78125	0	0
1	0.5	0	0
2.5	0.5	0	0
1	2.5625	0	0
2.5	2.5625	0	0
1	1	0	0
2.5	1	0	0
1	2.0625	0	0
2.5	2.0625	0	0
0.5	1	0	0
3	1	0	0
0.5	2.0625	0	0
3	2.0625	0	0
1	1.28125	0	0
2.5	1.28125	0	0
1	1.78125	0	0
2.5	1.78125	0	0
1.75	6.5625	0	0
-3.5	1.53125	0	0
1.75	-3.5	0	0
7	1.53125	0	0
[NumSegments] = 48
2	5	-1	0	0	0
7	3	-1	0	0	0
3	1	-1	0	0	0
1	6	-1	0	0	0
6	9	-1	0	0	0
9	25	-1	0	0	0
11	7	-1	0	0	0
2	0	-1	0	0	0
0	4	-1	0	0	0
4	6	-1	0	0	0
8	24	-1	0	0	0
10	5	-1	0	0	0
8	4	-1	0	0	0
10	18	-1	0	0	0
8	16	-1	0	0	0
12	14	-1	0	0	0
13	15	-1	0	0	0
14	26	-1	0	0	0
15	27	-1	0	0	0
16	17	-1	0	0	0
17	9	-1	0	0	0
5	7	-1	0	0	0
18	19	-1	0	0	0
19	11	-1	0	0	0
14	30	-1	0	0	0
12	28	-1	0	0	0
18	22	-1	0	0	0
22	23	-1	0	0	0
23	19	-1	0	0	0
17	21	-1	0	0	0
21	20	-1	0	0	0
20	16	-1	0	0	0
24	12	-1	0	0	0
25	13	-1	0	0	0
26	10	-1	0	0	0
27	11	-1	0	0	0
22	26	-1	0	0	0
23	27	-1	0	0	0
24	20	-1	0	0	0
21	25	-1	0	0	0
28	29	-1	0	0	0
29	13	-1	0	0	0
30	31	-1	0	0	0
31	15	-1	0	0	0
30	22	-1	0	0	0
31	23	-1	0	0	0
20	28	-1	0	0	0
21	29	-1	0	0	0
[NumArcSegments] = 4
32	33	90	1	0	0	0	1
33	34	90	1	0	0	0	1
34	35	90	1	0	0	0	1
35	32	90	1	0	0	0	1
[NumHoles] = 0
[NumBlockLabels] = 18
1.28	1.55	1	-1	0	0	0	1	0
1.3	2.8599999999999999	3	-1	0	0	0	1	0
3.1400000000000001	0.23000000000000001	3	-1	0	0	0	1	0
1.1200000000000001	0.22	3	-1	0	0	0	1	0
0.10000000000000001	1.3400000000000001	3	-1	0	0	0	1	0
1.3500000000000001	1.1499999999999999	3	-1	0	0	0	1	0
1.3600000000000001	1.9099999999999999	3	-1	0	0	0	1	0
1.4099999999999999	2.2799999999999998	2	-1	0	90	0	1	0
1.47	0.78000000000000003	2	-1	0	90	0	1	0
2.6499999999999999	1.1399999999999999	2	-1	0	180	0	1	0
0.62	1.1499999999999999	2	-1	0	0	0	1	0
2.6299999999999999	1.9299999999999999	2	-1	0	0	0	1	0
0.62	1.9299999999999999	2	-1	0	180	0	1	0
2.6200000000000001	2.2999999999999998	1	-1	0	0	0	1	0
2.6000000000000001	0.75	1	-1	0	0	0	1	0
0.59999999999999998	0.71999999999999997	1	-1	0	0	0	1	0
0.60999999999999999	2.29	1	-1	0	0	0	1	0
1.21	4.2300000000000004	1	-1	0	0	0	1	0
