[Format]      =  4.0
[Frequency]   =  0
[Precision]   =  1e-008
[MinAngle]    =  30
[DoSmartMesh] =  1
[Depth]       =  3
[LengthUnits] =  inches
[ProblemType] =  planar
[Coordinates] =  cartesian
[ACSolver]    =  1
[PrevType]    =  0
[PrevSoln]    =  ""
[Comment]     =  "Add comments here."
[PointProps]   = 0
[BdryProps]   = 0
[BlockProps]  = 5
  <BeginBlock>
    <BlockName> = "1018 Steel"
    <Mu_x> = 529
    <Mu_y> = 529
    <H_c> = 0
    <H_cAngle> = 0
    <J_re> = 0
    <J_im> = 0
    <Sigma> = 5.7999999999999998
    <d_lam> = 0
    <Phi_h> = 20
    <Phi_hx> = 0
    <Phi_hy> = 0
    <LamType> = 0
    <LamFill> = 1
    <NStrands> = 0
    <WireD> = 0
    <BHPoints> = 13
      0	0
      0.25030000000000002	238.73249999999999
      0.92500000000000004	795.77499999999998
      1.25	1591.55
      1.3899999999999999	2387.3249999999998
      1.5249999999999999	3978.875
      1.71	7957.75
      1.8700000000000001	15915.5
      1.9550000000000001	23873.25
      2.02	39788.75
      2.1099999999999999	79577.5
      2.2250000000000001	159155
      2.4300000000000002	318310
  <EndBlock>
  <BeginBlock>
    <BlockName> = "Air"
    <Mu_x> = 1
    <Mu_y> = 1
    <H_c> = 0
    <H_cAngle> = 0
    <J_re> = 0
    <J_im> = 0
    <Sigma> = 0
    <d_lam> = 0
    <Phi_h> = 0
    <Phi_hx> = 0
    <Phi_hy> = 0
    <LamType> = 0
    <LamFill> = 1
    <NStrands> = 0
    <WireD> = 0
    <BHPoints> = 0
  <EndBlock>
  <BeginBlock>
    <BlockName> = "N52"
    <Mu_x> = 1.05
    <Mu_y> = 1.05
    <H_c> = 956000
    <H_cAngle> = 0
    <J_re> = 0
    <J_im> = 0
    <Sigma> = 0.66700000000000004
    <d_lam> = 0
    <Phi_h> = 0
    <Phi_hx> = 0
    <Phi_hy> = 0
    <LamType> = 0
    <LamFill> = 1
    <NStrands> = 0
    <WireD> = 0
    <BHPoints> = 0
  <EndBlock>
  <BeginBlock>
    <BlockName> = "Pure Iron"
    <Mu_x> = 1
    <Mu_y> = 1
    <H_c> = 0
    <H_cAngle> = 0
    <J_re> = 0
    <J_im> = 0
    <Sigma> = 10.44
    <d_lam> = 0
    <Phi_h> = 0
    <Phi_hx> = 0
    <Phi_hy> = 0
    <LamType> = 0
    <LamFill> = 1
    <NStrands> = 0
    <WireD> = 0
    <BHPoints> = 21
      0	0
      0.22706499999999999	13.898400000000001
      0.45412999999999998	27.796700000000001
      0.68119499999999999	42.397399999999998
      0.90825999999999996	61.415700000000001
      1.13533	82.382400000000004
      1.36239	144.66900000000001
      1.58935	897.75999999999999
      1.81236	4581.7399999999998
      2.01004	17736.200000000001
      2.1331600000000002	41339.300000000003
      2.1999900000000001	68321.800000000003
      2.2547899999999998	95685.5
      2.2999299999999998	123355
      2.3425099999999999	151083
      2.3787600000000002	178954
      2.4150100000000001	206825
      2.45126	234696
      2.4874999999999998	262568
      2.5237500000000002	290439
      2.5600000000000001	318310
  <EndBlock>
  <BeginBlock>
    <BlockName> = "N42"
    <Mu_x> = 1.05
    <Mu_y> = 1.05
    <H_c> = 994529
    <H_cAngle> = 0
    <J_re> = 0
    <J_im> = 0
    <Sigma> = 0.66700000000000004
    <d_lam> = 0
    <Phi_h> = 0
    <Phi_hx> = 0
    <Phi_hy> = 0
    <LamType> = 0
    <LamFill> = 1
    <NStrands> = 0
    <WireD> = 0
    <BHPoints> = 0
  <EndBlock>
[CircuitProps]  = 0
[NumPoints] = 48
-1.9900510486144492e-017	-0.32500000000000001	0	0
1.9900510486144492e-017	0.32500000000000001	0	0
6.5824765454170231e-017	1.075	0	0
-6.5824765454170231e-017	-1.075	0	0
-1.4750000000000001	-1.075	0	0
1.4750000000000001	-1.075	0	0
1.4750000000000001	1.075	0	0
-1.4750000000000001	1.075	0	0
-1.4750000000000001	-0.3249999999999999	0	0
1.4750000000000001	-0.32500000000000012	0	0
-1.4750000000000001	0.32500000000000012	0	0
1.4750000000000001	0.3249999999999999	0	0
-1.7250000000000001	-1.075	0	0
1.7250000000000001	-1.075	0	0
-1.7250000000000001	1.075	0	0
1.7250000000000001	1.075	0	0
3.5208595475486401e-017	0.57499999999999996	0	0
-1.4750000000000001	0.57500000000000007	0	0
1.4750000000000001	0.57499999999999984	0	0
-3.5208595475486401e-017	-0.57499999999999996	0	0
-1.4750000000000001	-0.57499999999999984	0	0
1.4750000000000001	-0.57500000000000007	0	0
1.1174902042219599e-016	1.825	0	0
-1.1174902042219599e-016	-1.825	0	0
-2.5	-1.8249999999999997	0	0
2.5	-1.8250000000000002	0	0
-2.5	1.8250000000000002	0	0
2.5	1.8249999999999997	0	0
-2.5	1.0750000000000002	0	0
2.5	1.0749999999999997	0	0
-2.5	-1.0749999999999997	0	0
2.5	-1.0750000000000002	0	0
-2.5	1.5308084989341916e-016	0	0
2.5	-1.5308084989341916e-016	0	0
-3.25	1.9900510486144489e-016	0	0
3.25	-1.9900510486144489e-016	0	0
-3.25	2.5	0	0
-2.5	2.5	0	0
2.5	2.5	0	0
-2.5	-2.5	0	0
-3.25	-2.5	0	0
2.5	-2.5	0	0
3.25	-2.5	0	0
3.25	2.5	0	0
0.29999999999999999	47.5	0	0
-60.799999999999997	-0.80000000000000004	0	0
2	-50.799999999999997	0	0
66.799999999999997	1.5	0	0
[NumSegments] = 52
8	0	-1	0	0	0
9	0	-1	0	0	0
10	1	-1	0	0	0
11	1	-1	0	0	0
4	20	-1	0	0	0
4	3	-1	0	0	0
5	21	-1	0	0	0
3	5	-1	0	0	0
11	18	-1	0	0	0
2	6	-1	0	0	0
2	7	-1	0	0	0
7	17	-1	0	0	0
12	4	-1	0	0	0
14	7	-1	0	0	0
15	6	-1	0	0	0
5	13	-1	0	0	0
17	10	-1	0	0	0
18	6	-1	0	0	0
20	8	-1	0	0	0
21	9	-1	0	0	0
20	19	-1	0	0	0
19	21	-1	0	0	0
17	16	-1	0	0	0
16	18	-1	0	0	0
12	30	-1	0	0	0
30	24	-1	0	0	0
24	23	-1	0	0	0
23	25	-1	0	0	0
25	31	-1	0	0	0
31	13	-1	0	0	0
14	28	-1	0	0	0
28	26	-1	0	0	0
26	22	-1	0	0	0
22	27	-1	0	0	0
27	29	-1	0	0	0
29	15	-1	0	0	0
39	40	-1	0	0	0
40	34	-1	0	0	0
34	36	-1	0	0	0
36	37	-1	0	0	0
37	26	-1	0	0	0
28	32	-1	0	0	0
32	30	-1	0	0	0
24	39	-1	0	0	0
25	41	-1	0	0	0
41	42	-1	0	0	0
42	35	-1	0	0	0
35	43	-1	0	0	0
43	38	-1	0	0	0
38	27	-1	0	0	0
29	33	-1	0	0	0
33	31	-1	0	0	0
[NumArcSegments] = 4
44	45	90	1	0	0	0	1
45	46	90	1	0	0	0	1
46	47	90	1	0	0	0	1
47	44	90	1	0	0	0	1
[NumHoles] = 0
[NumBlockLabels] = 10
0	0	2	-1	0	0	0	1	0
-2.875	1.7604297737743202e-016	1	-1	0	0	0	1	0
2.875	-1.7604297737743202e-016	1	-1	0	0	0	1	0
2.7554552980815448e-017	0.45000000000000001	1	-1	0	90	0	1	0
-2.7554552980815448e-017	-0.45000000000000001	1	-1	0	90	0	1	0
5.0516680464828319e-017	0.82499999999999996	3	-1	0	90	0	1	0
-5.0516680464828319e-017	-0.82499999999999996	3	-1	0	90	0	1	0
8.8786892938183108e-017	1.45	1	-1	0	0	0	1	0
-8.8786892938183108e-017	-1.45	1	-1	0	0	0	1	0
-47.299999999999997	6.9000000000000004	2	-1	0	0	0	1	0
