[Format]      =  4.0
[Frequency]   =  0
[Precision]   =  1e-008
[MinAngle]    =  30
[DoSmartMesh] =  1
[Depth]       =  1
[LengthUnits] =  millimeters
[ProblemType] =  planar
[Coordinates] =  cartesian
[ACSolver]    =  0
[PrevType]    =  0
[PrevSoln]    =  ""
[Comment]     =  "Add comments here."
[PointProps]   = 0
[BdryProps]   = 1
  <BeginBdry>
    <BdryName> = "BoundaryCondition"
    <BdryType> = 0
    <A_0> = 0
    <A_1> = 0
    <A_2> = 0
    <Phi> = 0
    <c0> = 0
    <c0i> = 0
    <c1> = 0
    <c1i> = 0
    <Mu_ssd> = 0
    <Sigma_ssd> = 0
    <innerangle> = 0
    <outerangle> = 0
  <EndBdry>
[BlockProps]  = 6
  <BeginBlock>
    <BlockName> = "N42"
    <Mu_x> = 1.05
    <Mu_y> = 1.05
    <H_c> = 994529
    <H_cAngle> = 0
    <J_re> = 0
    <J_im> = 0
    <Sigma> = 0.66700000000000004
    <d_lam> = 0
    <Phi_h> = 0
    <Phi_hx> = 0
    <Phi_hy> = 0
    <LamType> = 0
    <LamFill> = 1
    <NStrands> = 0
    <WireD> = 0
    <BHPoints> = 0
  <EndBlock>
  <BeginBlock>
    <BlockName> = "Pure Iron"
    <Mu_x> = 14872
    <Mu_y> = 14872
    <H_c> = 0
    <H_cAngle> = 0
    <J_re> = 0
    <J_im> = 0
    <Sigma> = 10.44
    <d_lam> = 0
    <Phi_h> = 0
    <Phi_hx> = 0
    <Phi_hy> = 0
    <LamType> = 0
    <LamFill> = 1
    <NStrands> = 0
    <WireD> = 0
    <BHPoints> = 21
      0	0
      0.22706499999999999	13.898400000000001
      0.45412999999999998	27.796700000000001
      0.68119499999999999	42.397399999999998
      0.90825999999999996	61.415700000000001
      1.13533	82.382400000000004
      1.36239	144.66900000000001
      1.58935	897.75999999999999
      1.81236	4581.7399999999998
      2.01004	17736.200000000001
      2.1331600000000002	41339.300000000003
      2.1999900000000001	68321.800000000003
      2.2547899999999998	95685.5
      2.2999299999999998	123355
      2.3425099999999999	151083
      2.3787600000000002	178954
      2.4150100000000001	206825
      2.45126	234696
      2.4874999999999998	262568
      2.5237500000000002	290439
      2.5600000000000001	318310
  <EndBlock>
  <BeginBlock>
    <BlockName> = "Air"
    <Mu_x> = 1
    <Mu_y> = 1
    <H_c> = 0
    <H_cAngle> = 0
    <J_re> = 0
    <J_im> = 0
    <Sigma> = 0
    <d_lam> = 0
    <Phi_h> = 0
    <Phi_hx> = 0
    <Phi_hy> = 0
    <LamType> = 0
    <LamFill> = 1
    <NStrands> = 0
    <WireD> = 0
    <BHPoints> = 0
  <EndBlock>
  <BeginBlock>
    <BlockName> = "1010 Steel"
    <Mu_x> = 902.60000000000002
    <Mu_y> = 902.60000000000002
    <H_c> = 0
    <H_cAngle> = 0
    <J_re> = 0
    <J_im> = 0
    <Sigma> = 5.7999999999999998
    <d_lam> = 0
    <Phi_h> = 20
    <Phi_hx> = 0
    <Phi_hy> = 0
    <LamType> = 0
    <LamFill> = 1
    <NStrands> = 0
    <WireD> = 0
    <BHPoints> = 38
      0	0
      0.21186199999999999	79.577472
      0.26566499999999998	100.182101
      0.33237699999999998	126.121793
      0.414377	158.77793
      0.51381100000000002	199.88957099999999
      0.63189899999999999	251.646061
      0.76778400000000002	316.80362000000002
      0.917018	398.83212800000001
      1.0703530000000001	502.09990099999999
      1.2142550000000001	632.10632499999997
      1.3346370000000001	795.77471500000001
      1.4229810000000001	1001.821011
      1.480634	1261.2179289999999
      1.5172140000000001	1587.779301
      1.5445150000000001	1998.89571
      1.571296	2516.4606050000002
      1.6020490000000001	3168.036204
      1.638404	3988.3212819999999
      1.68049	5020.9990129999996
      1.727311	6321.0632500000002
      1.776659	7957.747155
      1.8254010000000001	10018.210114
      1.870557	12612.179292999999
      1.910809	15877.793009999999
      1.947222	19988.957103000001
      1.9823280000000001	25164.606051999999
      2.0182519999999999	31680.362036999999
      2.0553979999999998	39883.212823000002
      2.0925449999999999	50209.990126999997
      2.1280950000000001	63210.632496999999
      2.1616119999999999	79577.471546000001
      2.1946439999999998	100182.101136
      2.2303389999999998	126121.79292599999
      2.272386	158777.930096
      2.3242820000000002	199889.57102999999
      2.3893559999999998	251646.06052200001
      2.471238	316803.62037000002
  <EndBlock>
  <BeginBlock>
    <BlockName> = "1018 Steel"
    <Mu_x> = 529
    <Mu_y> = 529
    <H_c> = 0
    <H_cAngle> = 0
    <J_re> = 0
    <J_im> = 0
    <Sigma> = 5.7999999999999998
    <d_lam> = 0
    <Phi_h> = 20
    <Phi_hx> = 0
    <Phi_hy> = 0
    <LamType> = 0
    <LamFill> = 1
    <NStrands> = 0
    <WireD> = 0
    <BHPoints> = 13
      0	0
      0.25030000000000002	238.73249999999999
      0.92500000000000004	795.77499999999998
      1.25	1591.55
      1.3899999999999999	2387.3249999999998
      1.5249999999999999	3978.875
      1.71	7957.75
      1.8700000000000001	15915.5
      1.9550000000000001	23873.25
      2.02	39788.75
      2.1099999999999999	79577.5
      2.2250000000000001	159155
      2.4300000000000002	318310
  <EndBlock>
  <BeginBlock>
    <BlockName> = "430 Stainless Steel"
    <Mu_x> = 409
    <Mu_y> = 409
    <H_c> = 0
    <H_cAngle> = 0
    <J_re> = 0
    <J_im> = 0
    <Sigma> = 0
    <d_lam> = 0
    <Phi_h> = 0
    <Phi_hx> = 0
    <Phi_hy> = 0
    <LamType> = 0
    <LamFill> = 1
    <NStrands> = 0
    <WireD> = 0
    <BHPoints> = 10
      0	0
      0.20039999999999999	318.31
      0.6008	636.62
      1.1020000000000001	1591.55
      1.3859999999999999	4774.6499999999996
      1.4650000000000001	7957.75
      1.667548	32902.232515999996
      1.789509	92585.397305000006
      1.878209	160685.354903
      2.0800000000000001	318310
  <EndBlock>
[CircuitProps]  = 0
[NumPoints] = 26
-2.5	-10	0	0
37.5	-10	0	0
-2.5	30	0	0
37.5	30	0	0
-2.5	68	0	0
37.5	68	0	0
-2.5	108	0	0
37.5	108	0	0
-20	-10	0	0
55	-10	0	0
-40	-30	0	0
75	-30	0	0
75	128	0	0
55	108	0	0
-40	128	0	0
-20	108	0	0
-600	50	0	0
667.25	50	0	0
-20	128	0	0
55	128	0	0
-20	-30	0	0
55	-30	0	0
-2.5	61.5	0	0
37.5	61.5	0	0
-2.5	36.5	0	0
37.5	36.5	0	0
[NumSegments] = 32
3	2	-1	0	0	0
2	0	-1	0	0	0
0	1	-1	0	0	0
1	3	-1	0	0	0
7	6	-1	0	0	0
6	4	-1	0	0	0
4	5	-1	0	0	0
5	7	-1	0	0	0
8	0	-1	0	0	0
1	9	-1	0	0	0
10	20	-1	0	0	0
20	21	-1	0	0	0
11	12	-1	0	0	0
7	13	-1	0	0	0
6	15	-1	0	0	0
10	14	-1	0	0	0
14	18	-1	0	0	0
15	8	-1	0	0	0
13	9	-1	0	0	0
18	19	-1	0	0	0
19	12	-1	0	0	0
21	11	-1	0	0	0
8	20	-1	0	0	0
9	21	-1	0	0	0
18	15	-1	0	0	0
4	22	-1	0	0	0
22	23	-1	0	0	0
23	5	-1	0	0	0
24	2	-1	0	0	0
24	25	-1	0	0	0
25	3	-1	0	0	0
19	13	-1	0	0	0
[NumArcSegments] = 2
16	17	180	1	1	0	0	1
17	16	180	1	1	0	0	1
[NumHoles] = 0
[NumBlockLabels] = 10
16.899999999999999	10.399999999999999	1	-1	0	90	0	1	0
16.899999999999999	88.400000000000006	1	-1	0	90	0	1	0
15.399999999999999	63.399999999999999	5	-1	0	0	0	1	0
13.4	122.3	5	-1	0	0	0	1	0
6	415	3	-1	0	0	0	1	0
9.8000000000000007	57.5	3	-1	0	0	0	1	0
-34	67	5	-1	0	0	0	1	0
67.75	68	5	-1	0	0	0	1	0
17.5	-27	5	-1	0	0	0	1	0
16.600000000000001	33.299999999999997	5	-1	0	0	0	1	0
